10

O       2.288293630000000      0.484583070000000     -0.121712670000000
C       1.127501880000000      0.193607830000000     -0.071145460000000
C      -0.184064230000000      0.924152480000000      0.259412420000000
C      -0.873748740000000     -0.432000910000000     -0.015729600000000
N       0.451962880000000     -0.971798030000000     -0.300035950000000
H      -0.242967130000000      1.286299400000000      1.283947400000000
H      -0.427416880000000      1.726023410000000     -0.434781960000000
H      -1.362208720000000     -0.885687600000000      0.848217390000000
H      -1.550559340000000     -0.441221400000000     -0.871782480000000
H       0.773206630000000     -1.883958250000000     -0.576389100000000
